Version 4
SHEET 1 2244 680
WIRE -144 -176 -432 -176
WIRE -432 -144 -432 -176
WIRE 976 -128 736 -128
WIRE 1616 -80 1408 -80
WIRE -288 -16 -288 -48
WIRE -432 0 -432 -64
WIRE -320 0 -432 0
WIRE -144 16 -144 -176
WIRE -144 16 -256 16
WIRE 96 16 -144 16
WIRE 656 16 656 -16
WIRE -320 32 -352 32
WIRE 96 48 16 48
WIRE 1408 48 1408 -80
WIRE 1456 48 1408 48
WIRE -352 64 -352 32
WIRE -352 64 -512 64
WIRE 16 64 16 48
WIRE 736 64 736 -128
WIRE 832 64 736 64
WIRE 1616 64 1616 -80
WIRE 1616 64 1520 64
WIRE 1792 64 1616 64
WIRE 976 80 976 -128
WIRE 976 80 896 80
WIRE 1056 80 976 80
WIRE 1168 80 1120 80
WIRE 1216 80 1168 80
WIRE 1360 80 1360 48
WIRE 1360 80 1280 80
WIRE 1456 80 1360 80
WIRE -512 96 -512 64
WIRE 336 96 272 96
WIRE 448 96 416 96
WIRE 480 96 448 96
WIRE 656 96 656 80
WIRE 656 96 560 96
WIRE 832 96 656 96
WIRE 96 144 16 144
WIRE 96 176 48 176
WIRE 48 192 48 176
WIRE 448 208 448 96
WIRE 752 208 448 208
WIRE 976 208 976 80
WIRE 976 208 816 208
WIRE 1168 224 1168 80
WIRE 1328 224 1168 224
WIRE 1616 224 1616 64
WIRE 1616 224 1408 224
WIRE -512 240 -512 176
FLAG 864 112 0
FLAG 656 -16 0
FLAG 1488 96 0
FLAG 1360 -112 0
FLAG -288 -128 0
FLAG -288 48 0
FLAG 128 -80 0
FLAG 864 -32 0
FLAG 1488 -48 0
FLAG 128 192 0
FLAG -512 320 0
FLAG 208 240 0
FLAG 48 272 0
SYMBOL OpAmps\\OP07 864 16 R0
SYMATTR InstName U1
SYMBOL res 576 80 R90
WINDOW 0 0 56 VBottom 2
WINDOW 3 32 56 VTop 2
SYMATTR InstName R1
SYMATTR Value 220
SYMBOL res 432 80 R90
WINDOW 0 0 56 VBottom 2
WINDOW 3 32 56 VTop 2
SYMATTR InstName R2
SYMATTR Value 680
SYMBOL cap 816 192 R90
WINDOW 0 0 32 VBottom 2
WINDOW 3 32 32 VTop 2
SYMATTR InstName C2
SYMATTR Value 4.7µF
SYMBOL cap 640 16 R0
SYMATTR InstName C1
SYMATTR Value 1µF
SYMBOL OpAmps\\OP07 1488 0 R0
SYMATTR InstName U2
SYMBOL res 1344 -48 R0
SYMATTR InstName R3
SYMATTR Value 6.8k
SYMBOL cap 1280 64 R90
WINDOW 0 0 32 VBottom 2
WINDOW 3 32 32 VTop 2
SYMATTR InstName C3
SYMATTR Value 10µF
SYMBOL cap 1120 64 R90
WINDOW 0 0 32 VBottom 2
WINDOW 3 32 32 VTop 2
SYMATTR InstName C4
SYMATTR Value 10µF
SYMBOL res 1424 208 R90
WINDOW 0 0 56 VBottom 2
WINDOW 3 32 56 VTop 2
SYMATTR InstName R4
SYMATTR Value 3.3K
SYMBOL voltage 1360 -16 R180
WINDOW 0 24 96 Left 2
WINDOW 3 24 16 Left 2
WINDOW 123 0 0 Left 0
WINDOW 39 0 0 Left 0
SYMATTR InstName V5
SYMATTR Value 3
SYMBOL OpAmps\\OP07 -288 -48 R0
SYMATTR InstName U3
SYMBOL res -416 -48 R180
WINDOW 0 36 76 Left 2
WINDOW 3 36 40 Left 2
SYMATTR InstName R5
SYMATTR Value 10k
SYMBOL voltage -288 -32 R180
WINDOW 0 24 96 Left 2
WINDOW 3 24 16 Left 2
WINDOW 123 0 0 Left 0
WINDOW 39 0 0 Left 0
SYMATTR InstName V7
SYMATTR Value 6
SYMBOL OpAmps\\AD8421 128 96 R0
SYMATTR InstName U4
SYMBOL voltage -512 80 R0
WINDOW 123 24 124 Left 2
WINDOW 39 0 0 Left 0
SYMATTR Value2 AC 0.01
SYMATTR InstName V1
SYMATTR Value SINE(0 0.01 50)
SYMBOL res 0 48 R0
SYMATTR InstName R7
SYMATTR Value 100
SYMBOL voltage 128 16 R180
WINDOW 0 24 96 Left 2
WINDOW 3 24 16 Left 2
WINDOW 123 0 0 Left 0
WINDOW 39 0 0 Left 0
SYMATTR InstName V4
SYMATTR Value 6
SYMBOL voltage 864 64 R180
WINDOW 0 24 96 Left 2
WINDOW 3 24 16 Left 2
WINDOW 123 0 0 Left 0
WINDOW 39 0 0 Left 0
SYMATTR InstName V3
SYMATTR Value 6
SYMBOL voltage 1488 48 R180
WINDOW 0 24 96 Left 2
WINDOW 3 24 16 Left 2
WINDOW 123 0 0 Left 0
WINDOW 39 0 0 Left 0
SYMATTR InstName V10
SYMATTR Value 6
SYMBOL voltage -512 224 R0
WINDOW 123 0 0 Left 0
WINDOW 39 0 0 Left 0
SYMATTR InstName V8
SYMATTR Value 3
SYMBOL voltage 48 176 R0
WINDOW 123 0 0 Left 0
WINDOW 39 0 0 Left 0
SYMATTR InstName V6
SYMATTR Value 3
SYMBOL voltage 208 144 R0
WINDOW 123 0 0 Left 0
WINDOW 39 0 0 Left 0
SYMATTR InstName V2
SYMATTR Value 3
TEXT 1792 96 Left 2 !.tran 0 10s 0.001s 0.001ms
TEXT 1792 128 Left 2 ;.ac dec 1000 1 1k
